3D-Mesos_Hinged-Prism_V032_00mm.out
Mesoscopic [Hinged-prism] Test (V30 0-sieve Wall-Gap:1mm Aggregate-Gap:5mm)
# .: Control file :.
# After generation of input file:
# 1. replace ltrspace with RbsMTetra
# 2. For mesoscopic models provide ITZ, e.g., RbsMTetra 22523  itz 4   itz 6   nodes 4 ...
# 3. replace BC sets with Polyset #   minAssociations 3   rtetcellsofnodes
# 4. Copy polyset postprocess output between #%BEGIN_CHECK% #%END_CHECK%
# 5. Update dofman_all to dofman_output {} and element_all to element_output {}
# -------------------------------------------------------------------------------------------------------- 
StaticStructural nsteps 50 lstype 6 smtype 2 nmodules 1 profileopt 1 manrmsteps 0 maxiter 200 maxinc .1
# -------------------------------------------------------------------------------------------------------- 
# strs:1 prinStrs:2 Strn:4 prinStrn:5 Beam-F&M:7 beam-strn&crv:8 disp:12 | stype:0-2
vtkxml tstep_all domain_all vars 1 12 stype 0
#vtkxml tstep_all domain_all cellvars 2 7 8
domain 3d
OutputManager tstep_all dofman_output {63508 64753 67288 70163 78343 79428 79583 80293 86293 86808 88198 88338 88923 89083 90483 93803 93958 94968 96098 96593 98083 98883 103603 105123 105918 106578 108263 108523 109628 110098 112608 115618 119333 122493 122978 127768 130003 130333 130818 131313 133018 133843 135563 135703 136833 137363 137783 138773 139853 140393 140648 142333 142508 145823 14609
#
ndofman 11627 nelem 62068 ncrosssect 3 nmat 6 nbc 2 nic 0 nltf 1 nset 9 nxfemman 0
#
node 1     coords 3  0        0        0
node 2     coords 3  100      0        0       
node 3     coords 3  100      200      0       
node 4     coords 3  0        200      0       
node 5     coords 3  0        0        100     
node 6     coords 3  100      0        100     
node 7     coords 3  100      200      100     
node 8     coords 3  0        200      100     
node 9     coords 3  20.9858  33.2607  85.0753 
node 10    coords 3  20.9858  33.2607  64.2753 
node 11    coords 3  73.7454  10.9984  38.8866 
node 12    coords 3  73.7454  10.9984  18.0866 
node 13    coords 3  65.3702  188.612  28.2433 
node 14    coords 3  65.3702  188.612  7.44326 
node 15    coords 3  75.9768  87.41    38.2303 
node 16    coords 3  75.9768  87.41    17.4303 
node 17    coords 3  64.4585  103.319  55.707  
node 18    coords 3  64.4585  103.319  34.907  
node 19    coords 3  36.9494  108.177  81.7066 
node 20    coords 3  36.9494  108.177  60.9066 
# ... 11607 like lines cut
RbsMTetra 5929  itz 6   nodes 4   1950 1944 1966 9891 
RbsMTetra 5930  itz 6   nodes 4   1950 1966 1963 9891 
RbsMTetra 5931  itz 6   nodes 4   1966 1944 1942 9891 
RbsMTetra 5932  itz 6   nodes 4   1934 1053 1052 9891 
RbsMTetra 5933  itz 6   nodes 4   1937 1053 1960 9891 
RbsMTetra 5934  itz 6   nodes 4   1966 1946 1963 9891 
RbsMTetra 5935  itz 6   nodes 4   1942 1946 1966 9891 
RbsMTetra 5936  itz 6   nodes 4   1934 1052 1933 9891 
RbsMTetra 5937  itz 6   nodes 4   1052 1053 1937 9891 
RbsMTetra 5938  itz 6   nodes 4   1950 1947 1944 9891 
RbsMTetra 5939  itz 6   nodes 4   1939 1935 1954 9891 
RbsMTetra 5940  itz 6   nodes 4   1937 1960 1959 9891 
RbsMTetra 5941  itz 6   nodes 4   1935 1934 1933 9891 
RbsMTetra 5942  itz 6   nodes 4   1933 1955 1954 9891 
RbsMTetra 5943  itz 6   nodes 4   1963 1958 1950 9891 
RbsMTetra 5944  itz 6   nodes 4   1955 1946 1954 9891 
RbsMTetra 5945  itz 6   nodes 4   1935 1933 1954 9891 
RbsMTetra 5946  itz 6   nodes 4   1937 1956 1052 9891 
RbsMTetra 5947  itz 6   nodes 4   1051 1933 1052 9891 
RbsMTetra 5948  itz 6   nodes 4   1052 1956 1051 9891 
# ... 62048 like lines cut
# -------------------------------------------------------------------------------------------------------- 
# .: Section :.
# < 1. Specimen >
#SimpleCS 1 thick 1.0 width 1.0 material 1 set 1
FiberedCS 1 fibermaterials 1 1 thicks 1 1.0 widths 1 1.0 fiberycentrecoords 1 0.0 fiberzcentrecoords 1 0.0 thick 1.0 width 1.0 set 1
FiberedCS 2 fibermaterials 1 2 thicks 1 1.0 widths 1 1.0 fiberycentrecoords 1 0.0 fiberzcentrecoords 1 0.0 thick 1.0 width 1.0 set 2
FiberedCS 3 fibermaterials 1 4 thicks 1 1.0 widths 1 1.0 fiberycentrecoords 1 0.0 fiberzcentrecoords 1 0.0 thick 1.0 width 1.0 set 3
# < 2. Cap      >
#SimpleCS 2 thick 1.0 width 1.0 material 2 set 2
#SimpleCS 3 thick 1.0 width 1.0 material 2 set 3
#
# .: Material :.
# < 1. Specimen - matrix >
rbsConcrete1 1   d 1.   E 25.7e3  n 0.2   tAlpha 1.2e-5   fc 30.0
# < 2. Specimen - aggregate >
rbsConcrete1 2   d 1.   E 50.e3   n 0.2   tAlpha 1.2e-5   fc 60.0
# < 3. Specimen - matrix-agg. interface >
rbsConcrete1 3   d 1.   E 38.e3   n 0.2   tAlpha 1.2e-5   fc 30.0
# < 4. Steel cap      >
IsoLE 4   d 1.   E 200.e3   n 0.3    tAlpha 1.2e-5
# < 5. Specimen - steel cap interface >
rbsConcrete1 5   d 1.   E 113.e3  n 0.25  tAlpha 1.2e-5   fc 30.0
# < 6. ITZ materials definition >
itz 6 primaryMaterials 2  1 1   secondaryMaterials 2  2 4   interfaceMaterials 2  3 5
#
# < Displacement-control BC >
BoundaryCondition 1 loadTimeFunction 1  dofs 4  1 2 3   5     values 4  0.  0.  0.      0.       set 8
BoundaryCondition 2 loadTimeFunction 1  dofs 1    2           values 1      1.                   set 7
#BoundaryCondition 3 loadTimeFunction 1  dofs 3  1   3   5     values 3  0.      0.      0.       set 8
#
#BoundaryCondition 1 loadTimeFunction 1  dofs 6  1 2 3 4 5 6  values 6  0. -1.  0.  0.  0.  0.   set 3
#BoundaryCondition 2 loadTimeFunction 1  dofs 6  1 2 3 4 5 6  values 6  0.  0.  0.  0.  0.  0.   set 4
#
# < Load-Time Function >
PiecewiseLinFunction 1   nPoints 2   t 2  0. 50.   f(t) 2  0. 1.
#
Set 1 elements 45589 16192 16193 16194 16195 16196 16197 16198 16199 16200 16201 16202 16203 16204 16205 16206 16207 16208 16209 16210 16211 16212 16213 16214 16215 16216 16217 16218 16219 16220 16221 16222 16223 16224 16225 16226 16227 16228 16229 16230 16231 16232 16233 16234 16235 16236 16237 16238 16239 16240 16241 16242 16243 16244 16245 16246 16247 16248 16249 16250 16251 16252 16253 16254 1
Set 2 elements 10263 5929 5930 5931 5932 5933 5934 5935 5936 5937 5938 5939 5940 5941 5942 5943 5944 5945 5946 5947 5948 5949 5950 5951 5952 5953 5954 5955 5956 5957 5958 5959 5960 5961 5962 5963 5964 5965 5966 5967 5968 5969 5970 5971 5972 5973 5974 5975 5976 5977 5978 5979 5980 5981 5982 5983 5984 5985 5986 5987 5988 5989 5990 5991 5992 5993 5994 5995 5996 5997 5998 5999 6000 6001 6002 6003 6004
Set 3 elements 6216 65536 65537 65538 65539 65540 65541 65542 65543 65544 65545 65546 65547 65548 65549 65550 65551 65552 65553 65554 65555 65556 65557 65558 65559 65560 65561 65562 65563 65564 65565 65566 65567 65568 65569 65570 65571 65572 65573 65574 65575 65576 65577 65578 65579 65580 65581 65582 65583 65584 65585 65586 65587 65588 65589 65590 65591 65592 65593 65594 65595 65596 65597 65598 65
#Polyset #   minAssociations 3   rtetcellsofnodes
Polyset 4 minAssociations 3   rtetcellsofnodes 303 1024 1025 1026 3 4 1027 1028 7 8 1029 1030 1031 1032 1033 1034 1035 1036 1037 1038 1039 1040 1041 1042 1043 1044 1045 1046 1047 1048 1049 1050 7291 7292 7293 7294 7295 7296 7297 7298 7299 7300 7301 7302 7303 7304 7305 7306 7307 7308 7309 7310 7311 7312 7313 7314 7315 7316 7317 7318 7319 7320 7321 7322 7323 7324 7325 7326 7327 7328 7329 7330 7331 7
Polyset 5 minAssociations 3   rtetcellsofnodes 302 8192 1 2 8193 8194 5 6 8195 8196 8197 8198 8199 8200 8201 8202 8203 8204 8205 8206 8207 8208 8209 8210 8211 8212 8213 8214 8215 8216 8217 8218 8219 8220 8221 8222 8223 8224 8225 8226 8227 8228 8229 8230 8231 8232 8233 8234 8235 8236 8237 8238 8239 8240 8241 8242 8243 8244 8245 8154 8155 8156 8157 8158 8159 8160 8161 8162 8163 8164 8165 8166 8167 8
Polyset 6 minAssociations 3   rtetcellsofnodes 110 9830 9831 9832 9833 9834 9835 9836 9837 9838 9839 9840 9841 9842 9843 9844 9845 9846 9847 9848 9849 9850 9851 9852 9853 9854 9855 9856 9857 9858 9859 9860 9861 9862 9863 9864 9865 9866 9867 9868 9869 9870 9871 9872 9873 9874 9875 9876 9877 9878 9879 9880 9881 9882 9883 9884 9885 9886 9887 9888 9889 9890 815 816 817 818 819 820 821 822 823 824 825 
Polyset 7 minAssociations 3   rtetcellsofnodes 310 807 808 809 810 811 812 813 814 9240 9241 9242 9243 9244 9245 9246 9247 9248 9249 9250 9251 9252 9253 9254 9255 9256 9257 9258 9259 9260 9261 9262 9263 9264 9265 9266 9267 9268 9269 9270 9271 9272 9273 9274 9275 9276 9277 9278 9279 9280 9281 9282 9283 9284 9285 9286 9287 9288 9289 9290 9291 9292 9293 9294 9295 9296 9297 9298 9299 9300 9301 9302 93
Polyset 8 minAssociations 4   rtetcellsofnodes 4 824 825 826 823
Polyset 9 minAssociations 1   rtetcellsofnodes 1 1
#%BEGIN_CHECK%
#REACTION number 321908 dof 2
#%END_CHECK%
