3D-Mesos_Prism-Nonuni_V030_00mm.out
Mesoscopic [Nonuni-prism] Test (V30 0-sieve Wall-Gap:1mm Aggregate-Gap:5mm)
# .: Control file :.
# After generation of input file:
# 1. replace ltrspace with RbsMTetra
# 2. For mesoscopic models provide ITZ, e.g., RbsMTetra 22523  itz 4   itz 6   nodes 4 ...
# 3. replace BC sets with Polyset #   minAssociations 3   rtetcellsofnodes
# 4. Copy polyset postprocess output between #%BEGIN_CHECK% #%END_CHECK%
# 5. Update dofman_all to dofman_output {} and element_all to element_output {}
# -------------------------------------------------------------------------------------------------------- 
StaticStructural nsteps 50 lstype 6 smtype 2 nmodules 1 profileopt 1 manrmsteps 0 maxiter 200 maxinc .1
# -------------------------------------------------------------------------------------------------------- 
# strs:1 prinStrs:2 Strn:4 prinStrn:5 Beam-F&M:7 beam-strn&crv:8 disp:12 | stype:0-2
vtkxml tstep_all domain_all vars 1 12 stype 0
#vtkxml tstep_all domain_all cellvars 2 7 8
domain 3d
OutputManager tstep_all dofman_output {35185 35225 35440 37730 43485 45960 47900 64665 66660 67590 69990 71245 73930 74655 74895 76060 78535 78550 79810 81225 82710 83030 83145 83685 84090 84250 84785 85360 85715 87985 95675 95860 96270 96390 97615 100620 101170 103235 103670 106595 108305 109905 111840 113215 113365 113405 113445 113595 114715 116210 116475 116630 116845 117895 117945 118525 1187
ndofman 6494 nelem 35567 ncrosssect 3 nmat 6 nbc 3 nic 0 nltf 1 nset 8 nxfemman 0
node 1     coords 3  0        0        0       
node 2     coords 3  100      0        0       
node 3     coords 3  100      200      0       
node 4     coords 3  0        200      0       
node 5     coords 3  0        0        100     
node 6     coords 3  100      0        100     
node 7     coords 3  100      200      100     
node 8     coords 3  0        200      100     
node 9     coords 3  35.2078  106.811  21.9033 
node 10    coords 3  35.2078  106.811  1.10326 
node 11    coords 3  19.0475  21.3048  40.4678 
node 12    coords 3  19.0475  21.3048  19.6678 
node 13    coords 3  64.9529  125.919  34.3179 
node 14    coords 3  64.9529  125.919  13.5179 
node 15    coords 3  30.8393  152.708  46.0002 
node 16    coords 3  30.8393  152.708  25.2002 
node 17    coords 3  73.7383  129.234  58.2871 
node 18    coords 3  73.7383  129.234  37.4871 
node 19    coords 3  88.704   87.1142  85.7818 
node 20    coords 3  88.704   87.1142  64.9818 
# ... 6474 like lines cut
RbsMTetra 3041  itz 6   nodes 4   1622 1638 1625 5949 
RbsMTetra 3042  itz 6   nodes 4   1638 1628 1625 5949 
RbsMTetra 3043  itz 6   nodes 4   1617 1618 981 5949 
RbsMTetra 3044  itz 6   nodes 4   1618 980 981 5949 
RbsMTetra 3045  itz 6   nodes 4   1638 1631 1628 5949 
RbsMTetra 3046  itz 6   nodes 4   1631 1638 1622 5949 
RbsMTetra 3047  itz 6   nodes 4   979 1633 980 5949 
RbsMTetra 3048  itz 6   nodes 4   1618 1617 1619 5949 
RbsMTetra 3049  itz 6   nodes 4   1617 981 9   5949 
RbsMTetra 3050  itz 6   nodes 4   980 1616 979 5949 
RbsMTetra 3051  itz 6   nodes 4   980 1618 1616 5949 
RbsMTetra 3052  itz 6   nodes 4   1627 1625 1628 5949 
RbsMTetra 3053  itz 6   nodes 4   1621 981 980 5949 
RbsMTetra 3054  itz 6   nodes 4   1619 1616 1618 5949 
RbsMTetra 3055  itz 6   nodes 4   980 1633 1621 5949 
RbsMTetra 3056  itz 6   nodes 4   1631 1622 1619 5949 
RbsMTetra 3057  itz 6   nodes 4   1621 1633 1632 5949 
RbsMTetra 3058  itz 6   nodes 4   9   1628 1631 5949 
RbsMTetra 3059  itz 6   nodes 4   1632 1630 1621 5949 
RbsMTetra 3060  itz 6   nodes 4   1631 1617 9   5949 
# ... 35547 like lines cut
# -------------------------------------------------------------------------------------------------------- 
# .: Section :.
# < 1. Specimen >
#SimpleCS 1 thick 1.0 width 1.0 material 1 set 1
FiberedCS 1 fibermaterials 1 1 thicks 1 1.0 widths 1 1.0 fiberycentrecoords 1 0.0 fiberzcentrecoords 1 0.0 thick 1.0 width 1.0 set 1
FiberedCS 2 fibermaterials 1 2 thicks 1 1.0 widths 1 1.0 fiberycentrecoords 1 0.0 fiberzcentrecoords 1 0.0 thick 1.0 width 1.0 set 2
FiberedCS 3 fibermaterials 1 4 thicks 1 1.0 widths 1 1.0 fiberycentrecoords 1 0.0 fiberzcentrecoords 1 0.0 thick 1.0 width 1.0 set 3
# < 2. Cap      >
#SimpleCS 2 thick 1.0 width 1.0 material 2 set 2
#SimpleCS 3 thick 1.0 width 1.0 material 2 set 3
#
# .: Material :.
# < 1. Specimen - matrix >
rbsConcrete1 1   d 1.   E 25.7e3  n 0.2   tAlpha 1.2e-5   fc 30.0
# < 2. Specimen - aggregate >
rbsConcrete1 2   d 1.   E 50.e3   n 0.2   tAlpha 1.2e-5   fc 60.0
# < 3. Specimen - matrix-agg. interface >
rbsConcrete1 3   d 1.   E 38.e3   n 0.2   tAlpha 1.2e-5   fc 30.0
# < 4. Steel cap      >
IsoLE 4   d 1.   E 200.e3   n 0.3    tAlpha 1.2e-5
# < 5. Specimen - steel cap interface >
rbsConcrete1 5   d 1.   E 113.e3  n 0.25  tAlpha 1.2e-5   fc 30.0
# < 6. ITZ materials definition >
itz 6 primaryMaterials 2  1 1   secondaryMaterials 2  2 4   interfaceMaterials 2  3 5
#
# < Displacement-control BC >
BoundaryCondition 1 loadTimeFunction 1  dofs 1    2           values 1     -1.                   set 6
BoundaryCondition 2 loadTimeFunction 1  dofs 1    2           values 1      0.                   set 7
BoundaryCondition 3 loadTimeFunction 1  dofs 3  1   3   5     values 3  0.      0.      0.       set 8
#
#BoundaryCondition 1 loadTimeFunction 1  dofs 6  1 2 3 4 5 6  values 6  0. -1.  0.  0.  0.  0.   set 3
#BoundaryCondition 2 loadTimeFunction 1  dofs 6  1 2 3 4 5 6  values 6  0.  0.  0.  0.  0.  0.   set 4
#
# < Load-Time Function >
PiecewiseLinFunction 1   nPoints 2   t 2  0. 50.   f(t) 2  0. 1.
#
#Polyset #   minAssociations 3   rtetcellsofnodes
Set 1 elements 27875 8443 8444 8445 8446 8447 8448 8449 8450 8451 8452 8453 8454 8455 8456 8457 8458 8459 8460 8461 8462 8463 8464 8465 8466 8467 8468 8469 8470 8471 8472 8473 8474 8475 8476 8477 8478 8479 8480 8481 8482 8483 8484 8485 8486 8487 8488 8489 8490 8491 8492 8493 8494 8495 8496 8497 8498 8499 8500 8501 8502 8503 8504 8505 8506 8507 8508 8509 8510 8511 8512 8513 8514 8515 8516 8517 8518
Set 2 elements 5402 3041 3042 3043 3044 3045 3046 3047 3048 3049 3050 3051 3052 3053 3054 3055 3056 3057 3058 3059 3060 3061 3062 3063 3064 3065 3066 3067 3068 3069 3070 3071 3072 3073 3074 3075 3076 3077 3078 3079 3080 3081 3082 3083 3084 3085 3086 3087 3088 3089 3090 3091 3092 3093 3094 3095 3096 3097 3098 3099 3100 3101 3102 3103 3104 3105 3106 3107 3108 3109 3110 3111 3112 3113 3114 3115 3116 
Set 3 elements 2290 36318 36319 36320 36321 36322 36323 36324 36325 36326 36327 36328 36329 36330 36331 36332 36333 36334 36335 36336 36337 36338 36339 36340 36341 36342 36343 36344 36345 36346 36347 36348 36349 36350 36351 36352 36353 36354 36355 36356 36357 36358 36359 36360 36361 36362 36363 36364 36365 36366 36367 36368 36369 36370 36371 36372 36373 36374 36375 36376 36377 36378 36379 36380 36
Polyset 4   minAssociations 3   rtetcellsofnodes 145 3 4 7 8 4764 4765 4766 4767 4768 4769 4770 4771 4772 4773 4774 4775 4776 4777 4778 4779 4780 4781 4782 4783 4784 4785 4786 4787 4788 4789 4790 4791 4792 4793 4794 4795 4796 4797 4798 4799 4800 4801 4802 4803 4804 4805 4806 4807 4808 4809 4810 4811 4812 4813 4814 4815 4816 4817 4818 4819 4820 4821 4822 4823 4824 4825 4826 4827 4828 4829 4830 4831
Polyset 5   minAssociations 3   rtetcellsofnodes 145 5120 1 2 5121 5122 5 6 5123 5124 5125 5126 5127 5128 5129 5130 5131 5132 5133 5134 5135 5136 5137 5138 5139 5140 5141 5142 5143 5144 5145 5146 5147 5148 5149 5150 5151 5152 5153 5154 5155 5156 5157 5158 5159 5160 5161 5162 5163 5164 5165 5166 5167 5168 5169 5170 5171 5172 5173 5174 5175 5176 5177 5178 5179 5180 5181 5182 5183 5184 5185 5186 5187
Polyset 6   minAssociations 3   rtetcellsofnodes 36 5937 5938 5939 5940 5941 5942 5943 5944 5945 5946 827 828 1597 1598 1596 1600 1601 1602 1603 1604 1605 1606 1607 1608 1609 1610 829 1611 1612 1613 1614 830 1615 5947 5948 1599 
Polyset 7   minAssociations 3   rtetcellsofnodes 36 5901 5902 5903 5904 5905 5906 5907 5908 5909 5910 5911 5912 1576 1577 1578 1579 1580 1581 1582 1583 1584 1585 1586 1587 1588 1589 1590 823 824 825 826 1591 1592 1593 1594 1595 
Polyset 8   minAssociations 1   rtetcellsofnodes 1  1 

#%BEGIN_CHECK%
## Bottom of lower plate II
#REACTION number 182095 dof 2 
#REACTION number 182235 dof 2 
#REACTION number 182245 dof 2 
#REACTION number 182255 dof 2 
#REACTION number 182260 dof 2 
#REACTION number 182390 dof 2 
#REACTION number 182405 dof 2 
#REACTION number 182410 dof 2 
#REACTION number 182450 dof 2 
#REACTION number 182515 dof 2 
#REACTION number 182525 dof 2 
#REACTION number 182605 dof 2 
#REACTION number 182615 dof 2 
#REACTION number 182650 dof 2 
#REACTION number 182770 dof 2 
#REACTION number 182780 dof 2 
#REACTION number 182795 dof 2 
#REACTION number 182800 dof 2 
#REACTION number 182810 dof 2 
#REACTION number 182865 dof 2 
# ... 26 like lines cut
#%END_CHECK%