3D-Mesos_Prism-Nonuni_V030_00mm.out
Mesoscopic [Nonuni-prism] Test (V30 0-sieve Wall-Gap:1mm Aggregate-Gap:5mm)
# .: Control file :.
# After generation of input file:
# 1. replace ltrspace with RbsMTetra
# 2. For mesoscopic models provide ITZ, e.g., RbsMTetra 22523  itz 4   itz 6   nodes 4 ...
# 3. replace BC sets with Polyset #   minAssociations 3   rtetcellsofnodes
# 4. Copy polyset postprocess output between #%BEGIN_CHECK% #%END_CHECK%
# 5. Update dofman_all to dofman_output {} and element_all to element_output {}
# -------------------------------------------------------------------------------------------------------- 
StaticStructural nsteps 50 lstype 6 smtype 2 nmodules 1 profileopt 1 manrmsteps 0 maxiter 200 maxinc .1
# -------------------------------------------------------------------------------------------------------- 
# strs:1 prinStrs:2 Strn:4 prinStrn:5 Beam-F&M:7 beam-strn&crv:8 disp:12 | stype:0-2
vtkxml tstep_all domain_all vars 1 12 stype 0
#vtkxml tstep_all domain_all cellvars 2 7 8
domain 3d
OutputManager tstep_all dofman_output {65647 66287 67062 76382 76587 78087 78402 78637 79322 81297 88287 88497 89192 89837 92257 93642 93992 97702 98502 102297 103042 103732 104612 106082 106967 107317 109177 109252 111082 111422 111652 111762 113277 115857 118407 119777 121092 122007 122172 123697 124017 124842 125747 126047 126532 131077 131267 133137 134412 137437 138537 139317 139342 139527 14
ndofman 11391 nelem 60613 ncrosssect 3 nmat 6 nbc 3 nic 0 nltf 1 nset 8 nxfemman 0
node 1     coords 3  0        0        0       
node 2     coords 3  100      0        0       
node 3     coords 3  100      200      0       
node 4     coords 3  0        200      0       
node 5     coords 3  0        0        100     
node 6     coords 3  100      0        100     
node 7     coords 3  100      200      100     
node 8     coords 3  0        200      100     
node 9     coords 3  35.2078  106.811  21.9033 
node 10    coords 3  35.2078  106.811  1.10326 
node 11    coords 3  19.0475  21.3048  40.4678 
node 12    coords 3  19.0475  21.3048  19.6678 
node 13    coords 3  64.9529  125.919  34.3179 
node 14    coords 3  64.9529  125.919  13.5179 
node 15    coords 3  30.8393  152.708  46.0002 
node 16    coords 3  30.8393  152.708  25.2002 
node 17    coords 3  73.7383  129.234  58.2871 
node 18    coords 3  73.7383  129.234  37.4871 
node 19    coords 3  88.704   87.1142  85.7818 
node 20    coords 3  88.704   87.1142  64.9818 
# ... 11371 like lines cut
RbsMTetra 6547  itz 6   nodes 4   2036 2058 2044 9977 
RbsMTetra 6548  itz 6   nodes 4   2045 2038 2056 9977 
RbsMTetra 6549  itz 6   nodes 4   2058 2036 2034 9977 
RbsMTetra 6550  itz 6   nodes 4   2058 2034 2054 9977 
RbsMTetra 6551  itz 6   nodes 4   2056 2038 2040 9977 
RbsMTetra 6552  itz 6   nodes 4   2045 2035 2038 9977 
RbsMTetra 6553  itz 6   nodes 4   2058 2060 2044 9977 
RbsMTetra 6554  itz 6   nodes 4   2054 2060 2058 9977 
RbsMTetra 6555  itz 6   nodes 4   2039 2036 2044 9977 
RbsMTetra 6556  itz 6   nodes 4   2040 2050 2056 9977 
RbsMTetra 6557  itz 6   nodes 4   2035 2036 2038 9977 
RbsMTetra 6558  itz 6   nodes 4   2028 1056 1057 9977 
RbsMTetra 6559  itz 6   nodes 4   2039 2038 2036 9977 
RbsMTetra 6560  itz 6   nodes 4   2044 2049 2039 9977 
RbsMTetra 6561  itz 6   nodes 4   1056 2055 2037 9977 
RbsMTetra 6562  itz 6   nodes 4   2035 2034 2036 9977 
RbsMTetra 6563  itz 6   nodes 4   2040 2046 2050 9977 
RbsMTetra 6564  itz 6   nodes 4   2052 1057 2037 9977 
RbsMTetra 6565  itz 6   nodes 4   2034 2032 2054 9977 
RbsMTetra 6566  itz 6   nodes 4   2038 2039 2040 9977 
# ... 60593 like lines cut
# -------------------------------------------------------------------------------------------------------- 
# .: Section :.
# < 1. Specimen >
#SimpleCS 1 thick 1.0 width 1.0 material 1 set 1
FiberedCS 1 fibermaterials 1 1 thicks 1 1.0 widths 1 1.0 fiberycentrecoords 1 0.0 fiberzcentrecoords 1 0.0 thick 1.0 width 1.0 set 1
FiberedCS 2 fibermaterials 1 2 thicks 1 1.0 widths 1 1.0 fiberycentrecoords 1 0.0 fiberzcentrecoords 1 0.0 thick 1.0 width 1.0 set 2
FiberedCS 3 fibermaterials 1 4 thicks 1 1.0 widths 1 1.0 fiberycentrecoords 1 0.0 fiberzcentrecoords 1 0.0 thick 1.0 width 1.0 set 3
# < 2. Cap      >
#SimpleCS 2 thick 1.0 width 1.0 material 2 set 2
#SimpleCS 3 thick 1.0 width 1.0 material 2 set 3
#
# .: Material :.
# < 1. Specimen - matrix >
rbsConcrete1 1   d 1.   E 25.7e3  n 0.2   tAlpha 1.2e-5   fc 30.0
# < 2. Specimen - aggregate >
rbsConcrete1 2   d 1.   E 50.e3   n 0.2   tAlpha 1.2e-5   fc 60.0
# < 3. Specimen - matrix-agg. interface >
rbsConcrete1 3   d 1.   E 38.e3   n 0.2   tAlpha 1.2e-5   fc 30.0
# < 4. Steel cap      >
IsoLE 4   d 1.   E 200.e3   n 0.3    tAlpha 1.2e-5
# < 5. Specimen - steel cap interface >
rbsConcrete1 5   d 1.   E 113.e3  n 0.25  tAlpha 1.2e-5   fc 30.0
# < 6. ITZ materials definition >
itz 6 primaryMaterials 2  1 1   secondaryMaterials 2  2 4   interfaceMaterials 2  3 5
#
# < Displacement-control BC >
BoundaryCondition 1 loadTimeFunction 1  dofs 1    2           values 1     -1.                   set 6
BoundaryCondition 2 loadTimeFunction 1  dofs 1    2           values 1      0.                   set 7
BoundaryCondition 3 loadTimeFunction 1  dofs 3  1   3   5     values 3  0.      0.      0.       set 8
#
#BoundaryCondition 1 loadTimeFunction 1  dofs 6  1 2 3 4 5 6  values 6  0. -1.  0.  0.  0.  0.   set 3
#BoundaryCondition 2 loadTimeFunction 1  dofs 6  1 2 3 4 5 6  values 6  0.  0.  0.  0.  0.  0.   set 4
#
# < Load-Time Function >
PiecewiseLinFunction 1   nPoints 2   t 2  0. 50.   f(t) 2  0. 1.
#
#Polyset #   minAssociations 3   rtetcellsofnodes
Set 1 elements 45699 16704 16705 16706 16707 16708 16709 16710 16711 16712 16713 16714 16715 16716 16717 16718 16719 16720 16721 16722 16723 16724 16725 16726 16727 16728 16729 16730 16731 16732 16733 16734 16735 16736 16737 16738 16739 16740 16741 16742 16743 16744 16745 16746 16747 16748 16749 16750 16751 16752 16753 16754 16755 16756 16757 16758 16759 16760 16761 16762 16763 16764 16765 16766 1
Set 2 elements 10157 6547 6548 6549 6550 6551 6552 6553 6554 6555 6556 6557 6558 6559 6560 6561 6562 6563 6564 6565 6566 6567 6568 6569 6570 6571 6572 6573 6574 6575 6576 6577 6578 6579 6580 6581 6582 6583 6584 6585 6586 6587 6588 6589 6590 6591 6592 6593 6594 6595 6596 6597 6598 6599 6600 6601 6602 6603 6604 6605 6606 6607 6608 6609 6610 6611 6612 6613 6614 6615 6616 6617 6618 6619 6620 6621 6622
Set 3 elements 4757 65536 65537 65538 65539 65540 65541 65542 65543 65544 65545 65546 65547 65548 65549 65550 65551 65552 65553 65554 65555 65556 65557 65558 65559 65560 65561 65562 65563 65564 65565 65566 65567 65568 65569 65570 65571 65572 65573 65574 65575 65576 65577 65578 65579 65580 65581 65582 65583 65584 65585 65586 65587 65588 65589 65590 65591 65592 65593 65594 65595 65596 65597 65598 65
Polyset 4 minAssociations 3   rtetcellsofnodes 303  3 4 1027 1028 7 8 1029 1030 1031 1032 1033 1034 1035 1036 1037 1038 1039 1040 1041 1042 1043 1044 1045 1046 1047 1048 1049 1050 1051 1052 1053 1054 7532 7533 7531 7357 7358 7359 7360 7361 7362 7363 7364 7365 7366 7367 7368 7369 7370 7371 7372 7373 7374 7375 7376 7377 7378 7379 7380 7381 7382 7383 7384 7385 7386 7387 7388 7389 7390 7391 7392 7393 
Polyset 5 minAssociations 3   rtetcellsofnodes 306  1024 1 2 1025 1026 5 6 8192 8193 8194 8195 8196 8197 8198 8199 8200 8201 8202 8203 8204 8205 8206 8207 8208 8209 8210 8211 8212 8213 8214 8215 8216 8217 8218 8219 8220 8221 8222 8223 8224 8225 8226 8227 8228 8229 8230 8231 8232 8233 8234 8235 8236 8237 8238 8239 8240 8241 8242 8243 8244 8245 8246 8247 8248 8249 8250 8251 8252 8253 8254 8255 8256 
Polyset 6 minAssociations 3   rtetcellsofnodes 80  9933 9934 9935 9936 9937 9938 9939 9940 9941 9942 9943 9944 9945 9946 9947 9948 9949 9950 9951 9952 9953 9954 9955 9956 9957 9958 9959 9960 9961 9962 9963 9964 9965 9966 9967 9968 9969 9970 9971 9972 9973 9974 9975 9976 827 828 829 830 1992 1993 1995 1996 1997 1998 1999 2000 2001 2002 2003 2004 2005 2006 2007 2008 2010 2011 2012 2013 2014 2015 201
Polyset 7 minAssociations 3   rtetcellsofnodes 80  9853 9854 9855 9856 9857 9858 9859 9860 9861 9862 9863 9864 9865 9866 9867 9868 9869 9870 9871 9872 9873 9874 9875 9876 9877 9878 9879 9880 9881 9882 9883 9884 9885 9886 9887 9888 9889 9890 9891 9892 9893 9894 9895 9896 823 824 825 826 1956 1957 1959 1960 1961 1962 1963 1964 1965 1966 1967 1968 1969 1970 1971 1972 1974 1975 1976 1977 1978 1979 198
Polyset 8 minAssociations 1   rtetcellsofnodes 1  1

#%BEGIN_CHECK%
## polyset 7:
#REACTION number 309597 dof 2
#REACTION number 309622 dof 2
#REACTION number 309637 dof 2
#REACTION number 309652 dof 2
#REACTION number 309672 dof 2
#REACTION number 309682 dof 2
#REACTION number 309687 dof 2
#REACTION number 309707 dof 2
#REACTION number 309762 dof 2
#REACTION number 309767 dof 2
#REACTION number 309777 dof 2
#REACTION number 309792 dof 2
#REACTION number 309807 dof 2
#REACTION number 309812 dof 2
#REACTION number 309827 dof 2
#REACTION number 309832 dof 2
#REACTION number 309842 dof 2
#REACTION number 309862 dof 2
#REACTION number 309867 dof 2
#REACTION number 309877 dof 2
# ... 102 like lines cut
#%END_CHECK%
