capped_specimen.out
A specimen between two trapezoid caps
StaticStructural nsteps 10 nmodules 0
#
domain 3d
OutputManager tstep_all dofman_all element_all
ndofman 1077 nelem 416 ncrosssect 3 nmat 2 nbc 2 nic 0 nltf 1 nset 5 nxfemman 0
node 1     coords 3  40      -40       0       
node 2     coords 3  60      -40       0       
node 3     coords 3  100      0        0       
node 4     coords 3  0        0        0       
node 5     coords 3  0        200      0       
node 6     coords 3  100      200      0       
node 7     coords 3  60       240      0       
node 8     coords 3  40       240      0       
node 9     coords 3  45      -40       0       
node 10    coords 3  50      -40       0       
node 11    coords 3  55      -40       0       
node 12    coords 3  63.3333 -36.6667  0       
node 13    coords 3  66.6667 -33.3333  0       
node 14    coords 3  70      -30       0       
node 15    coords 3  73.3333 -26.6667  0       
node 16    coords 3  76.6667 -23.3333  0       
node 17    coords 3  80      -20       0       
node 18    coords 3  83.3333 -16.6667  0       
node 19    coords 3  86.6667 -13.3333  0       
node 20    coords 3  90      -10       0       
# ... 1057 like lines cut
TrPlaneStress2D 9     nodes 3   236 218 247 
TrPlaneStress2D 10    nodes 3   228 227 251 
TrPlaneStress2D 11    nodes 3   204 227 228 
TrPlaneStress2D 12    nodes 3   223 230 232 
TrPlaneStress2D 13    nodes 3   244 238 252 
TrPlaneStress2D 14    nodes 3   240 238 244 
TrPlaneStress2D 15    nodes 3   22  23  197 
TrPlaneStress2D 16    nodes 3   251 236 254 
TrPlaneStress2D 17    nodes 3   214 224 239 
TrPlaneStress2D 18    nodes 3   239 224 247 
TrPlaneStress2D 19    nodes 3   223 212 230 
TrPlaneStress2D 20    nodes 3   231 222 237 
TrPlaneStress2D 21    nodes 3   185 205 230 
TrPlaneStress2D 22    nodes 3   184 186 233 
TrPlaneStress2D 23    nodes 3   218 239 247 
TrPlaneStress2D 24    nodes 3   215 216 233 
TrPlaneStress2D 25    nodes 3   215 201 216 
TrPlaneStress2D 26    nodes 3   203 193 218 
TrPlaneStress2D 27    nodes 3   218 193 239 
TrPlaneStress2D 28    nodes 3   24  187 197 
# ... 396 like lines cut
#
# .: Section :.
# < 1. Specimen >
SimpleCS 1 thick 1.0 width 1.0 material 1 set 1
# < 2. Cap      >
SimpleCS 2 thick 1.0 width 1.0 material 2 set 2
SimpleCS 3 thick 1.0 width 1.0 material 2 set 3
#
# .: Material :.
# < 1. Specimen >
IsoLE 1 d 1. E 30.e3  n 0.2  tAlpha 1.2e-5
# < 2. Cap      >
IsoLE 2 d 1. E 200.e3 n 0.3  tAlpha 1.2e-5
#
# .: Boundary Condition :.
# < Displacement-control BC >
BoundaryCondition 1 loadTimeFunction 1  dofs 6  1 2 3 4 5 6  values 6  0. -1. 0. 0. 0. 0.  set 4
BoundaryCondition 2 loadTimeFunction 1  dofs 6  1 2 3 4 5 6  values 6  0. 0. 0. 0. 0. 0.  set 5
# < Loade-Time Function >
PiecewiseLinFunction 1 nPoints 2 t 2 0. 10. f(t) 2 0
#
Set 1 elements 0 
Set 2 elements 206 1819 1820 1821 1822 1823 1824 1825 1826 1827 1828 1829 1830 1831 1832 1833 1834 1835 1836 1837 1838 1839 1840 1841 1842 1843 1844 1845 1846 1847 1848 1849 1850 1851 1852 1853 1854 1855 1856 1857 1858 1859 1860 1861 1862 1863 1864 1865 1866 1867 1868 1869 1870 1871 1872 1873 1874 1875 1876 1877 1878 1879 1880 1881 1882 1883 1884 1885 1886 1887 1888 1889 1890 1891 1892 1893 1894 1
Set 3 elements 210 9 10 11 12 13 14 15 16 17 18 19 20 21 22 23 24 25 26 27 28 29 30 31 32 33 34 35 36 37 38 39 40 41 42 43 44 45 46 47 48 49 50 51 52 53 54 55 56 57 58 59 60 61 62 63 64 65 66 67 68 69 70 71 72 73 74 75 76 77 78 79 80 81 82 83 84 85 86 87 88 89 90 91 92 93 94 95 96 97 98 99 100 101 102 103 104 105 106 107 108 109 110 111 112 113 114 115 116 117 118 119 120 121 122 123 124 125 126 1
Set 4 nodes 5 8 161 162 163 7 
Set 5 nodes 5 1 2 11 10 9 
#
group Specimen
elemprop set 1
etype[91] TrPlaneStress2d
